Version 4
SHEET 1 880 680
WIRE 160 80 48 80
WIRE 304 80 224 80
WIRE 48 192 48 80
WIRE 144 192 48 192
WIRE 304 192 304 80
WIRE 304 192 224 192
WIRE 48 352 48 192
WIRE 160 352 48 352
WIRE 304 352 304 192
WIRE 304 352 224 352
WIRE 48 400 48 352
WIRE 304 400 304 352
WIRE 48 496 48 464
WIRE 304 496 304 464
FLAG 48 496 0
FLAG 304 496 0
SYMBOL Digital\\inv 160 16 R0
SYMATTR InstName A1
SYMBOL res 240 176 R90
WINDOW 0 0 56 VBottom 2
WINDOW 3 32 56 VTop 2
SYMATTR InstName R1
SYMATTR Value 1k
SYMBOL Misc\\xtal 224 336 R90
WINDOW 0 0 32 VBottom 2
WINDOW 3 32 32 VTop 2
SYMATTR InstName C1
SYMATTR Value 12.5p
SYMATTR SpiceLine Rser=30k
SYMBOL cap 32 400 R0
SYMATTR InstName C2
SYMBOL cap 288 400 R0
SYMATTR InstName C3
