Version 4
SHEET 1 880 680
WIRE 96 -128 64 -128
WIRE 256 -128 176 -128
WIRE 192 48 144 48
WIRE 192 80 192 48
WIRE 144 112 144 48
WIRE -128 128 -272 128
WIRE 64 128 64 -128
WIRE 64 128 -48 128
WIRE 112 128 64 128
WIRE 256 144 256 -128
WIRE 256 144 176 144
WIRE 336 144 256 144
WIRE 112 160 0 160
WIRE -272 224 -272 128
WIRE 0 224 0 160
WIRE 144 224 144 176
WIRE -272 336 -272 304
WIRE 0 336 0 304
WIRE 0 336 -272 336
WIRE 144 336 144 304
WIRE 144 336 0 336
FLAG 0 336 0
FLAG 192 80 0
SYMBOL res 192 -144 R90
WINDOW 0 0 56 VBottom 2
WINDOW 3 32 56 VTop 2
SYMATTR InstName R2
SYMATTR Value 9.4k
SYMBOL res -32 112 R90
WINDOW 0 0 56 VBottom 2
WINDOW 3 32 56 VTop 2
SYMATTR InstName R1
SYMATTR Value 2.35k
SYMBOL voltage 0 208 R0
WINDOW 123 0 0 Left 2
WINDOW 39 0 0 Left 2
SYMATTR InstName Vref
SYMATTR Value 2.5
SYMBOL voltage -272 208 R0
WINDOW 123 0 0 Left 2
WINDOW 39 0 0 Left 2
SYMATTR InstName Vin
SYMATTR Value SINE(2.5 2.5 1k)
SYMBOL voltage 144 208 R0
WINDOW 123 0 0 Left 2
WINDOW 39 0 0 Left 2
SYMATTR InstName Vs
SYMATTR Value 5
SYMBOL Opamps\\UniversalOpamp2 144 144 M180
SYMATTR InstName U1
TEXT -296 368 Left 2 !.tran 3m
