Version 4
SHEET 1 2212 680
WIRE 880 -288 464 -288
WIRE 1328 -288 944 -288
WIRE 2144 -288 1328 -288
WIRE 2144 -240 2144 -288
WIRE 2144 -80 2144 -160
WIRE 464 -48 464 -288
WIRE 608 -48 464 -48
WIRE 832 -48 672 -48
WIRE 1184 -48 1088 -48
WIRE 1584 -48 1184 -48
WIRE 1840 -48 1584 -48
WIRE 1584 32 1584 -48
WIRE 2144 48 2144 -16
WIRE 1328 80 1328 -288
WIRE 1392 80 1328 80
WIRE 1520 80 1472 80
WIRE 1184 144 1184 -48
WIRE 464 176 464 -48
WIRE 1584 176 1584 128
WIRE 1840 176 1840 -48
WIRE 2144 192 2144 112
WIRE 464 400 464 256
WIRE 960 400 960 48
WIRE 960 400 464 400
WIRE 1184 400 1184 208
WIRE 1184 400 960 400
WIRE 1584 400 1584 256
WIRE 1584 400 1184 400
WIRE 1840 400 1840 256
WIRE 1840 400 1584 400
WIRE 2144 400 2144 256
WIRE 2144 400 1840 400
FLAG 960 400 0
SYMBOL voltage 464 160 R0
WINDOW 123 0 0 Left 2
WINDOW 39 0 0 Left 2
SYMATTR InstName V1
SYMATTR Value PULSE(0 9 0 0 0 .5 1 1)
SYMBOL 7805 960 -48 R0
SYMATTR InstName U1
SYMBOL voltage 1584 160 R0
WINDOW 123 0 0 Left 2
WINDOW 39 0 0 Left 2
SYMATTR InstName V2
SYMATTR Value 5
SYMBOL res 1824 160 R0
SYMATTR InstName R2
SYMATTR Value 1000
SYMBOL res 2128 -256 R0
SYMATTR InstName R3
SYMATTR Value 220
SYMBOL pnp 1520 32 R0
SYMATTR InstName Q1
SYMBOL cap 1168 144 R0
SYMATTR InstName C1
SYMATTR Value 200µF
SYMBOL res 1488 64 R90
WINDOW 0 0 56 VBottom 2
WINDOW 3 32 56 VTop 2
SYMATTR InstName R1
SYMATTR Value 500
SYMBOL LED 2128 -80 R0
SYMATTR InstName D1
SYMBOL LED 2128 48 R0
SYMATTR InstName D2
SYMBOL LED 2128 192 R0
SYMATTR InstName D3
SYMBOL diode 880 -272 R270
WINDOW 0 32 32 VTop 2
WINDOW 3 0 32 VBottom 2
SYMATTR InstName D4
SYMBOL diode 608 -32 R270
WINDOW 0 32 32 VTop 2
WINDOW 3 0 32 VBottom 2
SYMATTR InstName D5
TEXT 432 424 Left 2 !.tran 1
