Version 4
SHEET 1 2212 680
WIRE 1024 -256 464 -256
WIRE 1632 -256 1088 -256
WIRE 464 -48 464 -256
WIRE 976 -48 464 -48
WIRE 1392 -48 1200 -48
WIRE 1504 -48 1456 -48
WIRE 1632 -48 1632 -256
WIRE 1632 -48 1504 -48
WIRE 1200 32 1200 -48
WIRE 976 80 976 -48
WIRE 1008 80 976 80
WIRE 1136 80 1088 80
WIRE 1632 112 1632 -48
WIRE 1504 144 1504 -48
WIRE 464 176 464 -48
WIRE 1200 176 1200 128
WIRE 464 400 464 256
WIRE 1200 400 1200 256
WIRE 1200 400 464 400
WIRE 1504 400 1504 208
WIRE 1504 400 1200 400
WIRE 1552 400 1504 400
WIRE 1632 400 1632 192
WIRE 1632 400 1552 400
FLAG 1552 400 0
SYMBOL voltage 464 160 R0
WINDOW 123 0 0 Left 2
WINDOW 39 0 0 Left 2
SYMATTR InstName V1
SYMATTR Value PULSE(0 6 0 0 0 .5 1 1)
SYMBOL voltage 1200 160 R0
WINDOW 123 0 0 Left 2
WINDOW 39 0 0 Left 2
SYMATTR InstName V2
SYMATTR Value 6
SYMBOL pnp 1136 32 R0
SYMATTR InstName Q1
SYMBOL cap 1488 144 R0
SYMATTR InstName C1
SYMATTR Value 100µF
SYMBOL res 1104 64 R90
WINDOW 0 0 56 VBottom 2
WINDOW 3 32 56 VTop 2
SYMATTR InstName R1
SYMATTR Value 500
SYMBOL res 1616 96 R0
SYMATTR InstName R2
SYMATTR Value 10k
SYMBOL diode 1024 -240 R270
WINDOW 0 32 32 VTop 2
WINDOW 3 0 32 VBottom 2
SYMATTR InstName D1
SYMBOL diode 1392 -32 R270
WINDOW 0 32 32 VTop 2
WINDOW 3 0 32 VBottom 2
SYMATTR InstName D2
TEXT 432 424 Left 2 !.tran 1
